/*--------------------------------*- C++ -*----------------------------------*\
| =========                 |                                                 |
| \\      /  F ield         | OpenFOAM: The Open Source CFD Toolbox           |
|  \\    /   O peration     | Version:  2112                                  |
|   \\  /    A nd           | Website:  www.openfoam.com                      |
|    \\/     M anipulation  |                                                 |
\*---------------------------------------------------------------------------*/
// * * * * * * * * * * * * * * * * * * * * * * * * * * * * * * * * * * * * * //
FoamFile
{
    version         2;
    format          ascii;
    arch            "LSB;label=32;scalar=64";
    class           volVectorField;
    location        "0";
    object          U;
}

#include "<case>/config"

dimensions      [ 0 1 -1 0 0 0 0 ];

internalField   uniform ( 0 0 0 );

boundaryField
{
    inlet
    {
        type            fixedValue;
        value           uniform ( $Ux 0 0 );
    }
    outlet
    {
        type            zeroGradient;
    }
    upperWall
    {
        type            fixedValue;
        value           uniform ( 0 0 0 );
    }
    lowerWall
    {
        type            fixedValue;
        value           uniform ( 0 0 0 );
    }
    frontAndBack
    {
        type            empty;
    }
}


// ************************************************************************* //
